Circuit: * A:\my_projects_Tamisi_Radu\MEMS_Accelerometer_SCCS\OTA_folded_cascode\gm_ID_methodology\gmID.asc

Ignoring BSIM parameter XL
Ignoring BSIM parameter XW
Ignoring BSIM parameter ACM
Ignoring BSIM parameter LDIF
Ignoring BSIM parameter HDIF
Ignoring BSIM parameter TLEV
Ignoring BSIM parameter TLEVC
Ignoring BSIM parameter CALCACM
Ignoring BSIM parameter SFVTFLAGl
Warning: Pd = 0 is less than W.
Warning: Ps = 0 is less than W.
Vgs: Missing value, assumed 0V @ DC

Date: Sat May 16 15:47:34 2026
Total elapsed time: 0.109 seconds.

tnom = 27
temp = 27
method = trap
totiter = 365
traniter = 0
tranpoints = 0
accept = 0
rejected = 0
matrix size = 4
fillins = 0
solver = Normal
Matrix Compiler1:       7 opcodes  0.0/[0.0]/0.0
Matrix Compiler2: 216 bytes object code size  0.0/0.0/[0.0]

