Circuit: * A:\my_projects_Tamisi_Radu\MEMS_Accelerometer_SCCS\SC_model\model_realSW\Draft1.asc

WARNING: Less than two connections to node VDD.  This node is used by VDD1.
Direct Newton iteration for .op point succeeded.

Date: Tue May 12 20:09:46 2026
Total elapsed time: 0.242 seconds.

tnom = 27
temp = 27
method = modified trap
totiter = 2853
traniter = 2850
tranpoints = 1408
accept = 1330
rejected = 78
matrix size = 20
fillins = 0
solver = Normal
Matrix Compiler1: 598 bytes object code size  0.2/0.2/[0.1]
Matrix Compiler2: 1.25 KB object code size  0.2/0.4/[0.2]

