Circuit: * A:\my_projects_Tamisi_Radu\MEMS_Accelerometer_SCCS\SC_model\model_realSW\SCreal_sw.asc

Ignoring BSIM parameter XL
Ignoring BSIM parameter XW
Ignoring BSIM parameter ACM
Ignoring BSIM parameter LDIF
Ignoring BSIM parameter HDIF
Ignoring BSIM parameter TLEV
Ignoring BSIM parameter TLEVC
Ignoring BSIM parameter CALCACM
Ignoring BSIM parameter SFVTFLAGl
Ignoring BSIM parameter XL
Ignoring BSIM parameter XW
Ignoring BSIM parameter ACM
Ignoring BSIM parameter LDIF
Ignoring BSIM parameter HDIF
Ignoring BSIM parameter TLEV
Ignoring BSIM parameter TLEVC
Ignoring BSIM parameter CALCACM
Ignoring BSIM parameter SFVTFLAGl
WARNING: Less than two connections to node VDD.  This node is used by VDD.
Warning: Pd = 0 is less than W.
Warning: Ps = 0 is less than W.
Warning: Pd = 0 is less than W.
Warning: Ps = 0 is less than W.
Direct Newton iteration for .op point succeeded.

Date: Thu May 14 16:54:41 2026
Total elapsed time: 0.132 seconds.

tnom = 27
temp = 27
method = modified trap
totiter = 3169
traniter = 3145
tranpoints = 1303
accept = 1240
rejected = 63
matrix size = 21
fillins = 0
solver = Normal
Matrix Compiler1: 912 bytes object code size  0.3/0.1/[0.1]
Matrix Compiler2: 1.76 KB object code size  0.2/0.2/[0.1]

