Circuit: * A:\my_projects_Tamisi_Radu\MEMS_Accelerometer_SCCS\SC_model\model_realSW\SCreal_sw.asc

Ignoring BSIM parameter XL
Ignoring BSIM parameter XW
Ignoring BSIM parameter ACM
Ignoring BSIM parameter LDIF
Ignoring BSIM parameter HDIF
Ignoring BSIM parameter TLEV
Ignoring BSIM parameter TLEVC
Ignoring BSIM parameter CALCACM
Ignoring BSIM parameter SFVTFLAGl
WARNING: Less than two connections to node VDD.  This node is used by VDD.
Warning: Pd = 0 is less than W.
Warning: Ps = 0 is less than W.
Instance "m6": Length shorter than recommended for a level 1 MOSFET.
Instance "m6": Width narrower than recommended for a level 1 MOSFET.
Instance "m5": Length shorter than recommended for a level 1 MOSFET.
Instance "m5": Width narrower than recommended for a level 1 MOSFET.
Instance "m4": Length shorter than recommended for a level 1 MOSFET.
Instance "m4": Width narrower than recommended for a level 1 MOSFET.
Direct Newton iteration for .op point succeeded.

Date: Thu May 14 01:19:00 2026
Total elapsed time: 0.077 seconds.

tnom = 27
temp = 27
method = modified trap
totiter = 2744
traniter = 2718
tranpoints = 1252
accept = 1204
rejected = 48
matrix size = 21
fillins = 0
solver = Normal
Matrix Compiler1: 966 bytes object code size  0.2/0.1/[0.1]
Matrix Compiler2: 1.75 KB object code size  0.1/0.2/[0.1]

