Circuit: * A:\my_projects_Tamisi_Radu\MEMS_Accelerometer_SCCS\SC_model\model_realSW\SCreal_sw.asc

WARNING: Less than two connections to node VDD.  This node is used by VDD.
Instance "m4": Length shorter than recommended for a level 1 MOSFET.
Instance "m4": Width narrower than recommended for a level 1 MOSFET.
Instance "m3": Length shorter than recommended for a level 1 MOSFET.
Instance "m3": Width narrower than recommended for a level 1 MOSFET.
Instance "m2": Length shorter than recommended for a level 1 MOSFET.
Instance "m2": Width narrower than recommended for a level 1 MOSFET.
Instance "m1": Length shorter than recommended for a level 1 MOSFET.
Instance "m1": Width narrower than recommended for a level 1 MOSFET.
Direct Newton iteration for .op point succeeded.

Date: Tue May 12 17:17:33 2026
Total elapsed time: 0.075 seconds.

tnom = 27
temp = 27
method = modified trap
totiter = 2983
traniter = 2979
tranpoints = 1372
accept = 1307
rejected = 65
matrix size = 15
fillins = 0
solver = Normal
Matrix Compiler1: 578 bytes object code size  0.1/0.1/[0.1]
Matrix Compiler2: 1.08 KB object code size  0.1/0.1/[0.1]

