Circuit: * A:\my_projects_Tamisi_Radu\MEMS_Accelerometer_SCCS\SC_model\SCmodel_sw.asc

WARNING: Less than two connections to node VDD.  This node is used by VDD.
Direct Newton iteration for .op point succeeded.

Date: Tue May 12 02:45:35 2026
Total elapsed time: 0.038 seconds.

tnom = 27
temp = 27
method = modified trap
totiter = 2783
traniter = 2780
tranpoints = 1374
accept = 1304
rejected = 70
matrix size = 15
fillins = 0
solver = Normal
Matrix Compiler1: 416 bytes object code size  0.1/0.0/[0.0]
Matrix Compiler2: off  [0.1]/0.1/0.1

