Circuit: * A:\my_projects_Tamisi_Radu\MEMS_Accelerometer_SCCS\SC_model\model_idealSW\SCmodel_sw.asc

WARNING: Less than two connections to node VDD.  This node is used by VDD.
Direct Newton iteration for .op point succeeded.

Date: Sat May 16 16:51:41 2026
Total elapsed time: 0.054 seconds.

tnom = 27
temp = 27
method = modified trap
totiter = 2136
traniter = 2132
tranpoints = 1066
accept = 1066
rejected = 0
matrix size = 20
fillins = 0
solver = Normal
Matrix Compiler1: 598 bytes object code size  0.1/0.1/[0.1]
Matrix Compiler2: 1.25 KB object code size  0.1/0.1/[0.1]

