Circuit: * A:\my_projects_Tamisi_Radu\MEMS_Accelerometer_SCCS\OTA_model\ota_model.asc


Date: Mon May 11 19:34:14 2026
Total elapsed time: 0.021 seconds.

tnom = 27
temp = 27
method = trap
totiter = 0
traniter = 0
tranpoints = 0
accept = 0
rejected = 0
matrix size = 7
fillins = 3
solver = Normal

