Circuit: * A:\my_projects_Tamisi_Radu\MEMS_Accelerometer_SCCS\macro_model\ota_model.asc

Direct Newton iteration for .op point succeeded.

Date: Wed May 13 23:21:54 2026
Total elapsed time: 0.047 seconds.

tnom = 27
temp = 27
method = modified trap
totiter = 2407
traniter = 2404
tranpoints = 1203
accept = 1154
rejected = 49
matrix size = 7
fillins = 0
solver = Normal
Matrix Compiler1:      13 opcodes  0.0/[0.0]/0.0
Matrix Compiler2: 473 bytes object code size  0.0/0.0/[0.0]

