Circuit: * A:\my_projects_Tamisi_Radu\MEMS_Accelerometer_SCCS\SW_nmos\settle_error\5tau.asc

Per .tran options, skipping operating point for transient analysis.
.step ron=500
.step ron=1000
.step ron=1500
.step ron=2000
.step ron=2500
.step ron=3000
.step ron=3500
.step ron=4000
.step ron=4500
.step ron=5000
.step ron=5500
.step ron=6000
.step ron=6500
.step ron=7000
.step ron=7500
.step ron=8000
.step ron=8500
.step ron=9000
.step ron=9500
.step ron=10000
.step ron=10500
.step ron=11000
.step ron=11500
.step ron=12000
.step ron=12500
.step ron=13000
.step ron=13500
.step ron=14000
.step ron=14500
.step ron=15000

Date: Thu May 14 00:11:47 2026
Total elapsed time: 0.484 seconds.

tnom = 27
temp = 27
method = modified trap
totiter = 2106
traniter = 2106
tranpoints = 1053
accept = 1050
rejected = 3
matrix size = 3
fillins = 0
solver = Normal
Matrix Compiler1:       2 opcodes  0.0/0.0/[0.0]
Matrix Compiler2: off  [0.0]/0.0/0.0

