Circuit: * A:\my_projects_Tamisi_Radu\MEMS_Accelerometer_SCCS\SW_nmos\settle_error\Draft2.asc

Direct Newton iteration for .op point succeeded.

Date: Tue May 12 16:49:43 2026
Total elapsed time: 0.032 seconds.

tnom = 27
temp = 27
method = modified trap
totiter = 2170
traniter = 2167
tranpoints = 1083
accept = 1073
rejected = 10
matrix size = 3
fillins = 0
solver = Normal
Matrix Compiler1: off  [0.0]/0.0/0.0
Matrix Compiler2: 121 bytes object code size  0.0/0.0/[0.0]

