Circuit: * A:\my_projects_Tamisi_Radu\MEMS_Accelerometer_SCCS\SW_nmos\Nmos\mosSW.asc

Ignoring BSIM parameter XL
Ignoring BSIM parameter XW
Ignoring BSIM parameter ACM
Ignoring BSIM parameter LDIF
Ignoring BSIM parameter HDIF
Ignoring BSIM parameter TLEV
Ignoring BSIM parameter TLEVC
Ignoring BSIM parameter CALCACM
Ignoring BSIM parameter SFVTFLAGl
Warning: Pd = 0 is less than W.
Warning: Ps = 0 is less than W.

Date: Thu May 14 00:16:11 2026
Total elapsed time: 0.090 seconds.

tnom = 27
temp = 27
method = trap
totiter = 404
traniter = 0
tranpoints = 0
accept = 0
rejected = 0
matrix size = 6
fillins = 0
solver = Normal
Matrix Compiler1: 164 bytes object code size  0.0/0.0/[0.0]
Matrix Compiler2: 428 bytes object code size  0.0/0.0/[0.0]

