Circuit: * A:\my_projects_Tamisi_Radu\MEMS_Accelerometer_SCCS\SW_tb\mosSW.asc

Instance "m1": Length shorter than recommended for a level 1 MOSFET.
Instance "m1": Width narrower than recommended for a level 1 MOSFET.

Date: Tue May 12 14:54:16 2026
Total elapsed time: 0.040 seconds.

tnom = 27
temp = 27
method = trap
totiter = 404
traniter = 0
tranpoints = 0
accept = 0
rejected = 0
matrix size = 6
fillins = 0
solver = Normal
Matrix Compiler1: 164 bytes object code size  0.0/0.0/[0.0]
Matrix Compiler2: 428 bytes object code size  0.0/0.0/[0.0]

