Circuit: * A:\my_projects_Tamisi_Radu\MEMS_Accelerometer_SCCS\SW_tb\mosSW.asc

Instance "m1": Length shorter than recommended for a level 1 MOSFET.
Instance "m1": Width narrower than recommended for a level 1 MOSFET.
Direct Newton iteration for .op point succeeded.

Date: Tue May 12 16:04:07 2026
Total elapsed time: 0.067 seconds.

tnom = 27
temp = 27
method = modified trap
totiter = 2177
traniter = 2172
tranpoints = 1087
accept = 1077
rejected = 10
matrix size = 5
fillins = 0
solver = Normal
Matrix Compiler1: 150 bytes object code size  0.0/0.0/[0.0]
Matrix Compiler2: 329 bytes object code size  0.1/0.0/[0.0]

