Circuit: * A:\my_projects_Tamisi_Radu\sccs_accel\BIAS.asc

Ignoring BSIM parameter XL
Ignoring BSIM parameter XW
Ignoring BSIM parameter ACM
Ignoring BSIM parameter LDIF
Ignoring BSIM parameter HDIF
Ignoring BSIM parameter TLEV
Ignoring BSIM parameter TLEVC
Ignoring BSIM parameter CALCACM
Ignoring BSIM parameter SFVTFLAGl
Ignoring BSIM parameter XL
Ignoring BSIM parameter XW
Ignoring BSIM parameter ACM
Ignoring BSIM parameter LDIF
Ignoring BSIM parameter HDIF
Ignoring BSIM parameter TLEV
Ignoring BSIM parameter TLEVC
Ignoring BSIM parameter CALCACM
Ignoring BSIM parameter SFVTFLAGl
Error on line 16 : vtest n005 0 v
	 Unknown parameter "v"
Warning: Pd = 0 is less than W.
Warning: Ps = 0 is less than W.
Warning: Pd = 0 is less than W.
Warning: Ps = 0 is less than W.
Vtest: Missing value, assumed 0V @ DC

Date: Thu May 07 15:33:21 2026
Total elapsed time: 0.078 seconds.

tnom = 27
temp = 27
method = trap
totiter = 374
traniter = 0
tranpoints = 0
accept = 0
rejected = 0
matrix size = 12
fillins = 0
solver = Normal
Matrix Compiler1: 856 bytes object code size  0.1/0.1/[0.1]
Matrix Compiler2: 1.13 KB object code size  0.1/0.1/[0.1]

