Circuit: * A:\my_projects_Tamisi_Radu\MEMS_Accelerometer_SCCS\tema2\ota_tema2.asc

.OP point found by inspection.

Date: Sat May 09 19:14:58 2026
Total elapsed time: 0.046 seconds.

tnom = 27
temp = 27
method = modified trap
totiter = 2104
traniter = 2104
tranpoints = 1053
accept = 1050
rejected = 3
matrix size = 4
fillins = 0
solver = Normal
Matrix Compiler1: off  [0.0]/0.0/0.0
Matrix Compiler2: 214 bytes object code size  0.0/0.0/[0.0]

